Version 4
SHEET 1 1356 912
WIRE 112 -752 0 -752
WIRE 512 -752 304 -752
WIRE 0 -720 0 -752
WIRE 208 -704 192 -704
WIRE 224 -704 208 -704
WIRE 208 -688 208 -704
WIRE 576 -688 208 -688
WIRE 704 -688 656 -688
WIRE 208 -672 208 -688
WIRE 208 -672 192 -672
WIRE 224 -672 208 -672
WIRE 0 -624 0 -656
WIRE 112 -624 0 -624
WIRE 416 -624 304 -624
WIRE 0 -368 0 -624
WIRE 112 -368 0 -368
WIRE 512 -368 512 -752
WIRE 512 -368 304 -368
WIRE 0 -336 0 -368
WIRE 208 -320 192 -320
WIRE 224 -320 208 -320
WIRE 208 -304 208 -320
WIRE 576 -304 208 -304
WIRE 704 -304 704 -688
WIRE 704 -304 656 -304
WIRE 208 -288 208 -304
WIRE 208 -288 192 -288
WIRE 224 -288 208 -288
WIRE 0 -240 0 -272
WIRE 112 -240 0 -240
WIRE 416 -240 416 -624
WIRE 416 -240 304 -240
WIRE 0 16 0 -240
WIRE 112 16 0 16
WIRE 512 16 512 -368
WIRE 512 16 304 16
WIRE 0 48 0 16
WIRE 208 64 192 64
WIRE 224 64 208 64
WIRE 208 80 208 64
WIRE 576 80 208 80
WIRE 704 80 704 -304
WIRE 704 80 656 80
WIRE 208 96 208 80
WIRE 208 96 192 96
WIRE 224 96 208 96
WIRE 0 144 0 112
WIRE 112 144 0 144
WIRE 416 144 416 -240
WIRE 416 144 304 144
WIRE 0 400 0 144
WIRE 96 400 0 400
WIRE 112 400 96 400
WIRE 512 400 512 16
WIRE 512 400 304 400
WIRE 880 400 512 400
WIRE 208 448 192 448
WIRE 224 448 208 448
WIRE 0 480 0 400
WIRE 208 480 208 448
WIRE 208 480 160 480
WIRE 576 480 208 480
WIRE 704 480 704 80
WIRE 704 480 656 480
WIRE 880 512 880 400
WIRE 160 528 160 480
WIRE 96 576 96 400
WIRE 144 576 96 576
WIRE 64 608 48 608
WIRE 240 608 240 576
WIRE 240 608 144 608
WIRE 0 656 0 544
WIRE 48 656 48 608
WIRE 48 656 0 656
WIRE 224 656 48 656
WIRE 416 656 416 144
WIRE 416 656 320 656
WIRE 880 656 880 576
WIRE 880 656 416 656
WIRE 0 736 0 656
WIRE 704 736 704 480
WIRE 704 736 0 736
WIRE 0 784 0 736
FLAG 0 784 0
SYMBOL Misc/cell 0 480 R0
SYMATTR InstName cell1
SYMATTR Value 3.6
SYMATTR SpiceLine Rser=.1
SYMBOL Misc/cell 0 48 R0
SYMATTR InstName cell2
SYMATTR Value 4.2
SYMATTR SpiceLine Rser=.1
SYMBOL nmos 320 608 R90
SYMATTR InstName Q14
SYMATTR Value Si9436DY
SYMBOL voltage 560 480 R270
WINDOW 0 32 56 VTop 2
WINDOW 3 -32 56 VBottom 2
SYMATTR InstName V1
SYMATTR Value PULSE(25.2 0 .1 1u 1u .1 1 100)
SYMATTR SpiceLine Rser=.1
SYMBOL pmos 112 448 R270
SYMATTR InstName Q11
SYMATTR Value Si9435DY
SYMBOL pmos 304 448 M270
SYMATTR InstName Q12
SYMATTR Value Si9435DY
SYMBOL pmos 240 528 R90
SYMATTR InstName Q15
SYMATTR Value Si9400DY
SYMBOL pmos 112 96 M90
SYMATTR InstName Q23
SYMATTR Value Si9435DY
SYMBOL pmos 304 96 R90
SYMATTR InstName Q24
SYMATTR Value Si9435DY
SYMBOL pmos 112 64 R270
SYMATTR InstName Q21
SYMATTR Value Si9435DY
SYMBOL pmos 304 64 M270
SYMATTR InstName Q22
SYMATTR Value Si9435DY
SYMBOL voltage 560 80 R270
WINDOW 0 32 56 VTop 2
WINDOW 3 -32 56 VBottom 2
SYMATTR InstName V2
SYMATTR Value PULSE(25.2 0 .3 1u 1u .1 1 100)
SYMATTR SpiceLine Rser=.1
SYMBOL res 160 592 R90
WINDOW 0 0 56 VBottom 2
WINDOW 3 32 56 VTop 2
SYMATTR InstName R1
SYMATTR Value 100k
SYMBOL Misc/cell 0 -336 R0
SYMATTR InstName cell3
SYMATTR Value 3.6
SYMATTR SpiceLine Rser=.1
SYMBOL pmos 112 -288 M90
SYMATTR InstName Q33
SYMATTR Value Si9435DY
SYMBOL pmos 304 -288 R90
SYMATTR InstName Q34
SYMATTR Value Si9435DY
SYMBOL pmos 112 -320 R270
SYMATTR InstName Q31
SYMATTR Value Si9435DY
SYMBOL pmos 304 -320 M270
SYMATTR InstName Q32
SYMATTR Value Si9435DY
SYMBOL voltage 560 -304 R270
WINDOW 0 32 56 VTop 2
WINDOW 3 -32 56 VBottom 2
SYMATTR InstName V3
SYMATTR Value PULSE(25.2 0 .5 1u 1u .1 1 100)
SYMATTR SpiceLine Rser=.1
SYMBOL Misc/cell 0 -720 R0
SYMATTR InstName cell4
SYMATTR Value 3.6
SYMATTR SpiceLine Rser=.1
SYMBOL pmos 112 -672 M90
SYMATTR InstName Q43
SYMATTR Value Si9435DY
SYMBOL pmos 304 -672 R90
SYMATTR InstName Q44
SYMATTR Value Si9435DY
SYMBOL pmos 112 -704 R270
SYMATTR InstName Q41
SYMATTR Value Si9435DY
SYMBOL pmos 304 -704 M270
SYMATTR InstName Q42
SYMATTR Value Si9435DY
SYMBOL voltage 560 -688 R270
WINDOW 0 32 56 VTop 2
WINDOW 3 -32 56 VBottom 2
SYMATTR InstName V4
SYMATTR Value PULSE(25.2 0 .7 1u 1u .1 1 100)
SYMATTR SpiceLine Rser=.1
SYMBOL cap 864 512 R0
SYMATTR InstName CTRANSFER
SYMATTR Value .1
SYMATTR SpiceLine Rser=100m
SYMBOL ind2 1024 -288 M180
WINDOW 0 36 80 Left 2
WINDOW 3 36 40 Left 2
SYMATTR InstName L1
SYMATTR Value 21µ
SYMATTR SpiceLine Rser=32m
SYMBOL ind2 1184 -288 R180
WINDOW 0 36 80 Left 2
WINDOW 3 36 40 Left 2
SYMATTR InstName L2
SYMATTR Value 7µ
SYMATTR SpiceLine Rser=15m
SYMBOL ind2 1184 -192 R180
WINDOW 0 36 80 Left 2
WINDOW 3 36 40 Left 2
SYMATTR InstName L3
SYMATTR Value 7µ
SYMATTR SpiceLine Rser=15m
SYMBOL ind2 1024 -192 M180
WINDOW 0 36 80 Left 2
WINDOW 3 36 40 Left 2
SYMATTR InstName L4
SYMATTR Value 14µ
SYMATTR SpiceLine Rser=140m
TEXT 544 800 Left 2 !.tran 1m 1 1m UIC
TEXT 1008 -432 Left 2 !K1 L1 L2 L3 L4 1
TEXT 1000 -472 Left 2 ;Wurth 7491195501
RECTANGLE Normal 980 -496 1232 -180 2
