Version 4
SHEET 1 996 680
WIRE 480 304 480 256
WIRE 480 304 416 304
WIRE 544 304 544 256
WIRE 656 304 544 304
WIRE 480 352 480 304
WIRE 544 352 544 304
WIRE 656 368 656 304
WIRE 160 480 160 304
WIRE 288 480 160 480
WIRE 656 480 656 448
WIRE 656 480 288 480
WIRE 288 496 288 480
FLAG 288 496 0
SYMBOL LED 480 272 R270
WINDOW 0 72 32 VTop 2
WINDOW 3 0 32 VBottom 2
SYMATTR InstName D1
SYMATTR Value QTLP690C
SYMBOL LED 544 336 R90
WINDOW 0 0 32 VBottom 2
WINDOW 3 72 32 VTop 2
SYMATTR InstName D2
SYMATTR Value QTLP690C
SYMBOL voltage 656 352 R0
SYMATTR InstName V2
SYMATTR Value PULSE(0 4.2 1m 0 0 1m 2m)
SYMBOL voltage 160 208 R0
SYMATTR InstName V1
SYMATTR Value 9.4
SYMBOL res 432 288 R90
WINDOW 0 0 56 VBottom 2
WINDOW 3 32 56 VTop 2
SYMATTR InstName R1
SYMATTR Value 60
SYMBOL zener 320 416 R180
WINDOW 0 24 64 Left 2
WINDOW 3 24 0 Left 2
SYMATTR InstName D3
SYMATTR Value 1N750
SYMBOL zener 288 176 R0
SYMATTR InstName D4
SYMATTR Value 1N750
TEXT 696 160 Left 2 !.tran 5m
