Version 4
SHEET 1 3156 912
WIRE 1088 -288 1008 -288
WIRE 2000 -288 1088 -288
WIRE 2048 -288 2000 -288
WIRE 2304 -288 2176 -288
WIRE 2416 -288 2368 -288
WIRE 2512 -288 2416 -288
WIRE 2608 -288 2512 -288
WIRE 2720 -288 2608 -288
WIRE 2768 -288 2720 -288
WIRE 2912 -288 2768 -288
WIRE 3040 -288 2912 -288
WIRE 1008 -272 1008 -288
WIRE 1088 -256 1088 -288
WIRE 2608 -240 2608 -288
WIRE 2768 -240 2768 -288
WIRE 2048 -208 2016 -208
WIRE 2416 -208 2416 -224
WIRE 2416 -208 2176 -208
WIRE 2000 -192 2000 -288
WIRE 2048 -192 2000 -192
WIRE 3040 -192 3040 -224
WIRE 1008 -160 1008 -192
WIRE 1088 -160 1088 -192
WIRE 1088 -160 1008 -160
WIRE 1520 -160 1088 -160
WIRE 1696 -160 1520 -160
WIRE 1920 -160 1776 -160
WIRE 1520 -128 1520 -160
WIRE 1904 -112 1808 -112
WIRE 2016 -112 2016 -208
WIRE 2016 -112 1904 -112
WIRE 2048 -112 2016 -112
WIRE 2416 -112 2416 -208
WIRE 2416 -112 2176 -112
WIRE 2608 -112 2608 -160
WIRE 2608 -112 2416 -112
WIRE 2768 -96 2768 -160
WIRE 2912 -64 2912 -224
WIRE 3040 -64 3040 -112
WIRE 3040 -64 2912 -64
WIRE 1520 -16 1520 -48
WIRE 1616 -16 1520 -16
WIRE 1952 -16 1616 -16
WIRE 2048 -16 2032 -16
WIRE 2720 -16 2624 -16
WIRE 1808 0 1808 -112
WIRE 1520 32 1520 -16
WIRE 2048 48 2048 -16
WIRE 2080 48 2048 48
WIRE 2176 48 2144 48
WIRE 2272 48 2256 48
WIRE 2288 48 2272 48
WIRE 2416 48 2416 -112
WIRE 2416 48 2368 48
WIRE 1088 80 1088 -160
WIRE 1216 80 1088 80
WIRE 1376 80 1296 80
WIRE 1728 80 1664 80
WIRE 1744 80 1728 80
WIRE 1760 80 1744 80
WIRE 2416 80 2416 48
WIRE 2624 80 2624 64
WIRE 2624 80 2416 80
WIRE 2768 80 2768 0
WIRE 2768 80 2624 80
WIRE 2912 80 2912 -64
WIRE 2912 80 2768 80
WIRE 1744 128 1744 80
WIRE 2000 128 1744 128
WIRE 1680 160 1664 160
WIRE 1696 160 1680 160
WIRE 1808 160 1808 96
WIRE 1808 160 1776 160
WIRE 1808 176 1808 160
WIRE 2048 176 2048 144
WIRE 2048 176 1808 176
WIRE 1920 224 1920 -160
WIRE 2016 224 1920 224
WIRE 2256 224 2208 224
WIRE 2512 224 2512 -288
WIRE 2512 224 2336 224
WIRE 1088 240 1088 80
WIRE 1216 240 1088 240
WIRE 1376 240 1296 240
WIRE 1696 240 1664 240
WIRE 1712 240 1696 240
WIRE 1808 240 1808 176
WIRE 1808 240 1792 240
WIRE 1088 320 1088 240
WIRE 1120 320 1088 320
WIRE 1216 320 1184 320
WIRE 1376 320 1296 320
WIRE 1696 320 1664 320
WIRE 1712 320 1696 320
WIRE 1744 320 1712 320
WIRE 1872 320 1824 320
WIRE 1920 320 1872 320
WIRE 2016 320 1920 320
WIRE 2224 320 2208 320
WIRE 1712 352 1712 320
WIRE 2224 352 2224 320
WIRE 2272 352 2224 352
WIRE 2272 368 2272 352
WIRE 2224 384 2224 352
WIRE 1808 432 1808 240
WIRE 1920 432 1920 320
WIRE 2352 448 2320 448
WIRE 2224 480 2224 464
WIRE 2272 480 2272 464
WIRE 2272 480 2224 480
WIRE 1088 544 1088 320
WIRE 1088 544 1008 544
WIRE 1520 544 1520 352
WIRE 1520 544 1088 544
WIRE 1712 544 1712 416
WIRE 1712 544 1520 544
WIRE 1808 544 1808 512
WIRE 1808 544 1712 544
WIRE 1920 544 1920 512
WIRE 1920 544 1808 544
WIRE 2064 544 1920 544
WIRE 2224 544 2224 480
WIRE 2224 544 2144 544
WIRE 2288 544 2224 544
WIRE 2352 544 2352 528
WIRE 2352 544 2288 544
WIRE 2416 544 2416 80
WIRE 2416 544 2352 544
FLAG 1728 80 gate
FLAG 1696 240 sense
FLAG 1696 320 FBX
FLAG 2720 -288 T+
FLAG 1904 -112 N005
FLAG 1008 544 0
FLAG 1616 -16 in
FLAG 2624 -16 gload
FLAG 2288 544 T-
FLAG 2272 48 sync
FLAG 1872 320 FB
FLAG 1680 160 OC
SYMBOL ind2 2192 -304 M0
SYMATTR InstName L1
SYMATTR Value 21µ
SYMATTR SpiceLine Rser=32m
SYMBOL ind2 2032 -192 M180
WINDOW 0 36 80 Left 2
WINDOW 3 36 40 Left 2
SYMATTR InstName L2
SYMATTR Value 7µ
SYMATTR SpiceLine Rser=15m
SYMBOL ind2 2032 -96 M180
WINDOW 0 36 80 Left 2
WINDOW 3 36 40 Left 2
SYMATTR InstName L3
SYMATTR Value 7µ
SYMATTR SpiceLine Rser=15m
SYMBOL ind2 2192 -208 M0
SYMATTR InstName L4
SYMATTR Value 14µ
SYMATTR SpiceLine Rser=140m
SYMBOL cap 1184 304 R90
WINDOW 0 0 32 VBottom 2
WINDOW 3 32 32 VTop 2
SYMATTR InstName C3
SYMATTR Value 47n
SYMBOL nmos 1760 0 R0
SYMATTR InstName M1
SYMATTR Value BSC024NE2LS
SYMBOL res 1792 416 R0
SYMATTR InstName R4
SYMATTR Value 3m
SYMBOL cap 2400 -288 R0
SYMATTR InstName C4
SYMATTR Value 47µ
SYMBOL cap 1072 -256 R0
SYMATTR InstName C5
SYMATTR Value 47µ
SYMBOL res 2752 -256 R0
SYMATTR InstName RLOAD
SYMATTR Value 1
SYMBOL Optos/PC817A 2112 272 M0
SYMATTR InstName U2
SYMBOL res 2240 240 R270
WINDOW 0 32 56 VTop 2
WINDOW 3 0 56 VBottom 2
SYMATTR InstName R6
SYMATTR Value 900
SYMBOL res 1904 416 R0
SYMATTR InstName R11
SYMATTR Value 1.8k
SYMBOL schottky 2304 -304 M90
WINDOW 0 0 32 VBottom 2
WINDOW 3 32 32 VTop 2
SYMATTR InstName D1
SYMATTR Value MBR20100CT
SYMATTR Description Diode
SYMATTR Type diode
SYMBOL voltage 1520 -32 R180
WINDOW 0 24 96 Left 2
WINDOW 3 24 16 Left 2
SYMATTR InstName V6
SYMATTR Value SINE(7 1 100)
SYMATTR SpiceLine Rser=10m
SYMBOL voltage 1008 -288 R0
SYMATTR InstName V5
SYMATTR Value 3.6
SYMATTR SpiceLine Rser=10m
SYMBOL res 1312 304 R90
WINDOW 0 0 56 VBottom 2
WINDOW 3 32 56 VTop 2
SYMATTR InstName R2
SYMATTR Value 2.2k
SYMBOL res 1808 224 R90
WINDOW 0 0 56 VBottom 2
WINDOW 3 32 56 VTop 2
SYMATTR InstName R3
SYMATTR Value 15.4k
SYMBOL nmos 2720 -96 R0
SYMATTR InstName M2
SYMATTR Value FDMS3615SQ2
SYMBOL voltage 2624 -32 R0
SYMATTR InstName V1
SYMATTR Value PULSE(0 10 0 .1u .1u 1 1)
SYMBOL res 2592 -256 R0
SYMATTR InstName R5
SYMATTR Value 10
SYMBOL PowerProducts/LTC3805-5 1520 192 R0
SYMATTR InstName U1
SYMBOL res 1312 224 R90
WINDOW 0 0 56 VBottom 2
WINDOW 3 32 56 VTop 2
SYMATTR InstName R7
SYMATTR Value 61.5k
SYMBOL voltage 1312 80 R90
WINDOW 0 -32 56 VBottom 2
WINDOW 3 32 56 VTop 2
SYMATTR InstName V2
SYMATTR Value PULSE(0 7 .1m 0 0 1 1)
SYMBOL voltage 2160 544 R90
WINDOW 0 -32 56 VBottom 2
WINDOW 3 32 56 VTop 2
SYMATTR InstName V3
SYMATTR Value PULSE(0 20 1 1p 1p 5m 10m)
SYMBOL cap 2144 32 R90
WINDOW 0 0 32 VBottom 2
WINDOW 3 32 32 VTop 2
SYMATTR InstName C1
SYMATTR Value 20p
SYMBOL res 2272 32 R90
WINDOW 0 0 56 VBottom 2
WINDOW 3 32 56 VTop 2
SYMATTR InstName R8
SYMATTR Value 2k
SYMBOL voltage 2272 48 R270
WINDOW 0 32 56 VTop 2
WINDOW 3 -32 56 VBottom 2
SYMATTR InstName V4
SYMATTR Value 4.5
SYMATTR SpiceLine Rser=2k
SYMBOL nmos 2000 48 R0
SYMATTR InstName M3
SYMATTR Value Si5515_N
SYMBOL res 1936 0 R270
WINDOW 0 32 56 VTop 2
WINDOW 3 0 56 VBottom 2
SYMATTR InstName R9
SYMATTR Value 600
SYMBOL res 2240 480 R180
WINDOW 0 36 76 Left 2
WINDOW 3 36 40 Left 2
SYMATTR InstName R1
SYMATTR Value 5.1k
SYMBOL nmos 2320 368 M0
SYMATTR InstName M4
SYMATTR Value FDMS3615SQ2
SYMBOL voltage 2352 432 R0
SYMATTR InstName V7
SYMATTR Value PULSE(0 5 15m 1u 1u 20m 40m)
SYMBOL cap 2896 -288 R0
SYMATTR InstName C2
SYMATTR Value 2m
SYMATTR SpiceLine Rser=.1
SYMBOL schottky 3056 -224 R180
WINDOW 0 24 64 Left 2
WINDOW 3 24 0 Left 2
SYMATTR InstName D2
SYMATTR Value B520C
SYMATTR Description Diode
SYMATTR Type diode
SYMBOL voltage 3040 -208 R0
SYMATTR InstName V8
SYMATTR Value 3.5
SYMBOL res 1840 304 R90
WINDOW 0 0 56 VBottom 2
WINDOW 3 32 56 VTop 2
SYMATTR InstName R10
SYMATTR Value 330
SYMBOL cap 1696 352 R0
SYMATTR InstName C6
SYMATTR Value 47n
SYMBOL voltage 1792 -160 R90
WINDOW 0 -32 56 VBottom 2
WINDOW 3 32 56 VTop 2
SYMATTR InstName V9
SYMATTR Value 5
SYMBOL res 1792 144 R90
WINDOW 0 0 56 VBottom 2
WINDOW 3 32 56 VTop 2
SYMATTR InstName R12
SYMATTR Value 5.9k
TEXT 2560 328 Left 2 !.tran .2
TEXT 2208 -336 Right 2 !K1 L1 L2 L3 1
TEXT 2216 -376 Right 2 ;Wurth 7491195501
LINE Normal 2108 -456 2108 604 3
RECTANGLE Normal 2236 -400 1984 -84 2
