Version 4
SHEET 1 3156 912
WIRE 1088 -288 1008 -288
WIRE 2000 -288 1088 -288
WIRE 2048 -288 2000 -288
WIRE 2304 -288 2176 -288
WIRE 2432 -288 2368 -288
WIRE 2512 -288 2432 -288
WIRE 2608 -288 2512 -288
WIRE 2720 -288 2608 -288
WIRE 2768 -288 2720 -288
WIRE 1008 -272 1008 -288
WIRE 1088 -256 1088 -288
WIRE 2608 -240 2608 -288
WIRE 2768 -240 2768 -288
WIRE 2048 -208 2016 -208
WIRE 2432 -208 2432 -224
WIRE 2432 -208 2176 -208
WIRE 1728 -192 1376 -192
WIRE 2000 -192 2000 -288
WIRE 2048 -192 2000 -192
WIRE 1008 -160 1008 -192
WIRE 1088 -160 1088 -192
WIRE 1088 -160 1008 -160
WIRE 1376 -160 1376 -192
WIRE 1376 -160 1088 -160
WIRE 2016 -112 2016 -208
WIRE 2048 -112 2016 -112
WIRE 2432 -112 2432 -208
WIRE 2432 -112 2176 -112
WIRE 2608 -112 2608 -160
WIRE 2608 -112 2432 -112
WIRE 2768 -96 2768 -160
WIRE 1376 -80 1376 -160
WIRE 1904 -48 1808 -48
WIRE 2016 -48 2016 -112
WIRE 2016 -48 1904 -48
WIRE 1376 -16 1344 -16
WIRE 1408 -16 1376 -16
WIRE 1520 -16 1408 -16
WIRE 1616 -16 1520 -16
WIRE 1728 -16 1728 -112
WIRE 1728 -16 1696 -16
WIRE 1920 -16 1728 -16
WIRE 2672 -16 2560 -16
WIRE 2720 -16 2672 -16
WIRE 1808 0 1808 -48
WIRE 1520 32 1520 -16
WIRE 1344 80 1344 -16
WIRE 1376 80 1344 80
WIRE 1728 80 1664 80
WIRE 1760 80 1728 80
WIRE 2432 80 2432 -112
WIRE 2560 80 2560 64
WIRE 2560 80 2432 80
WIRE 2768 80 2768 0
WIRE 2768 80 2560 80
WIRE 2512 96 2512 -288
WIRE 1920 112 1920 -16
WIRE 2016 112 1920 112
WIRE 2288 112 2208 112
WIRE 1088 160 1088 -160
WIRE 1120 160 1088 160
WIRE 1808 160 1808 96
WIRE 1808 160 1664 160
WIRE 2288 176 2288 112
WIRE 2512 176 2288 176
WIRE 2016 208 1920 208
WIRE 2432 208 2432 80
WIRE 2432 208 2208 208
WIRE 1088 240 1088 160
WIRE 1216 240 1088 240
WIRE 1376 240 1296 240
WIRE 1696 240 1664 240
WIRE 1712 240 1696 240
WIRE 1808 240 1808 160
WIRE 1808 240 1792 240
WIRE 1088 320 1088 240
WIRE 1120 320 1088 320
WIRE 1216 320 1184 320
WIRE 1312 320 1296 320
WIRE 1376 320 1312 320
WIRE 1712 320 1664 320
WIRE 1744 320 1712 320
WIRE 1920 320 1920 208
WIRE 1920 320 1744 320
WIRE 1808 336 1808 240
WIRE 1920 336 1920 320
WIRE 1712 368 1712 320
WIRE 2432 368 2432 208
WIRE 1088 416 1088 320
WIRE 1120 416 1088 416
WIRE 1312 416 1312 320
WIRE 1312 416 1184 416
WIRE 1456 448 1408 448
WIRE 1408 480 1408 448
WIRE 1408 480 1392 480
WIRE 1088 544 1088 416
WIRE 1088 544 1008 544
WIRE 1344 544 1344 496
WIRE 1344 544 1088 544
WIRE 1456 544 1456 528
WIRE 1456 544 1344 544
WIRE 1520 544 1520 352
WIRE 1520 544 1456 544
WIRE 1712 544 1712 432
WIRE 1712 544 1520 544
WIRE 1808 544 1808 416
WIRE 1808 544 1712 544
WIRE 1920 544 1920 416
WIRE 1920 544 1808 544
FLAG 1728 80 gate
FLAG 1696 240 sense
FLAG 1744 320 FBX
FLAG 2432 368 0
FLAG 2720 -288 N003
FLAG 1904 -48 N005
FLAG 1008 544 0
FLAG 1408 -16 in
FLAG 2672 -16 gload
SYMBOL ind2 2192 -304 M0
SYMATTR InstName L1
SYMATTR Value 21µ
SYMATTR SpiceLine Rser=32m
SYMBOL ind2 2032 -192 M180
WINDOW 0 36 80 Left 2
WINDOW 3 36 40 Left 2
SYMATTR InstName L2
SYMATTR Value 7µ
SYMATTR SpiceLine Rser=15m
SYMBOL ind2 2032 -96 M180
WINDOW 0 36 80 Left 2
WINDOW 3 36 40 Left 2
SYMATTR InstName L3
SYMATTR Value 7µ
SYMATTR SpiceLine Rser=15m
SYMBOL ind2 2192 -208 M0
SYMATTR InstName L4
SYMATTR Value 14µ
SYMATTR SpiceLine Rser=140m
SYMBOL cap 1184 304 R90
WINDOW 0 0 32 VBottom 2
WINDOW 3 32 32 VTop 2
SYMATTR InstName C3
SYMATTR Value 200n
SYMBOL nmos 1760 0 R0
SYMATTR InstName M1
SYMATTR Value BSC024NE2LS
SYMBOL res 1792 320 R0
SYMATTR InstName R4
SYMATTR Value 5m
SYMBOL cap 2416 -288 R0
SYMATTR InstName C4
SYMATTR Value 47µ
SYMBOL cap 1072 -256 R0
SYMATTR InstName C5
SYMATTR Value 47µ
SYMBOL res 2752 -256 R0
SYMATTR InstName RLOAD
SYMATTR Value 1.3
SYMBOL Optos/PC817A 2112 160 M0
SYMATTR InstName U2
SYMBOL res 2528 192 R180
WINDOW 0 36 76 Left 2
WINDOW 3 36 40 Left 2
SYMATTR InstName R6
SYMATTR Value 1k
SYMBOL res 1904 320 R0
SYMATTR InstName R11
SYMATTR Value 300
SYMBOL schottky 2304 -304 M90
WINDOW 0 0 32 VBottom 2
WINDOW 3 32 32 VTop 2
SYMATTR InstName D1
SYMATTR Value MBR20100CT
SYMATTR Description Diode
SYMATTR Type diode
SYMBOL cap 1392 -16 R180
WINDOW 0 24 56 Left 2
WINDOW 3 24 8 Left 2
SYMATTR InstName C2
SYMATTR Value 4.7µ
SYMBOL voltage 1728 -96 R180
WINDOW 0 24 96 Left 2
WINDOW 3 24 16 Left 2
SYMATTR InstName V6
SYMATTR Value PULSE(0 5 2m 1m 1m 1 1)
SYMATTR SpiceLine Rser=10m
SYMBOL voltage 1008 -288 R0
SYMATTR InstName V5
SYMATTR Value 3.6
SYMATTR SpiceLine Rser=10m
SYMBOL res 1712 -32 R90
WINDOW 0 0 56 VBottom 2
WINDOW 3 32 56 VTop 2
SYMATTR InstName R1
SYMATTR Value 1
SYMBOL res 1312 304 R90
WINDOW 0 0 56 VBottom 2
WINDOW 3 32 56 VTop 2
SYMATTR InstName R2
SYMATTR Value 20k
SYMBOL res 1808 224 R90
WINDOW 0 0 56 VBottom 2
WINDOW 3 32 56 VTop 2
SYMATTR InstName R3
SYMATTR Value 3k
SYMBOL nmos 2720 -96 R0
SYMATTR InstName M2
SYMATTR Value FDMS3615SQ2
SYMBOL voltage 2560 -32 R0
SYMATTR InstName V1
SYMATTR Value PULSE(10 0 40.1m .1u .1u 2m 10m)
SYMBOL voltage 1456 432 R0
SYMATTR InstName V2
SYMATTR Value PULSE(0 10 40m .1u .1u 2.2m 10m)
SYMBOL res 2592 -256 R0
SYMATTR InstName R5
SYMATTR Value 1k
SYMBOL nmos 1392 400 M0
SYMATTR InstName M3
SYMBOL PowerProducts/LTC3805-5 1520 192 R0
SYMATTR InstName U1
SYMBOL cap 1184 144 R90
WINDOW 0 0 32 VBottom 2
WINDOW 3 32 32 VTop 2
SYMATTR InstName C1
SYMATTR Value 10n
SYMBOL res 1312 224 R90
WINDOW 0 0 56 VBottom 2
WINDOW 3 32 56 VTop 2
SYMATTR InstName R7
SYMATTR Value 61.5k
SYMBOL cap 1696 368 R0
SYMATTR InstName C6
SYMATTR Value 10n
SYMBOL cap 1184 400 R90
WINDOW 0 0 32 VBottom 2
WINDOW 3 32 32 VTop 2
SYMATTR InstName C7
SYMATTR Value 10n
TEXT 2560 328 Left 2 !.tran 1m .1
TEXT 2208 -336 Right 2 !K1 L1 L2 L3 1
TEXT 2216 -376 Right 2 ;Wurth 7491195501
LINE Normal 2108 -520 2108 540 3
RECTANGLE Normal 2236 -400 1984 -84 2
