Version 4
SHEET 1 3468 912
WIRE 1088 -288 1008 -288
WIRE 2048 -288 1088 -288
WIRE 2304 -288 2176 -288
WIRE 2432 -288 2368 -288
WIRE 2560 -288 2432 -288
WIRE 2752 -288 2560 -288
WIRE 2960 -288 2752 -288
WIRE 3136 -288 2960 -288
WIRE 1008 -272 1008 -288
WIRE 1088 -256 1088 -288
WIRE 2752 -224 2752 -288
WIRE 2304 -208 2176 -208
WIRE 2960 -176 2960 -288
WIRE 3072 -176 2960 -176
WIRE 1008 -160 1008 -192
WIRE 1088 -160 1088 -192
WIRE 1088 -160 1008 -160
WIRE 1520 -160 1088 -160
WIRE 1696 -160 1520 -160
WIRE 1952 -160 1776 -160
WIRE 1520 -128 1520 -160
WIRE 2048 -112 2048 -208
WIRE 2048 -112 1808 -112
WIRE 2752 -112 2752 -160
WIRE 2960 -112 2960 -176
WIRE 3072 -112 3072 -176
WIRE 1952 -48 1952 -160
WIRE 1520 -16 1520 -48
WIRE 1808 0 1808 -112
WIRE 1520 32 1520 -16
WIRE 2960 32 2960 -32
WIRE 3072 32 3072 -32
WIRE 3072 32 2960 32
WIRE 1088 80 1088 -160
WIRE 1216 80 1088 80
WIRE 1376 80 1296 80
WIRE 1728 80 1664 80
WIRE 1760 80 1728 80
WIRE 1680 160 1664 160
WIRE 1696 160 1680 160
WIRE 1808 160 1808 96
WIRE 1808 160 1776 160
WIRE 1904 160 1888 160
WIRE 1952 160 1952 32
WIRE 1952 160 1904 160
WIRE 1952 224 1952 160
WIRE 2016 224 1952 224
WIRE 2432 224 2432 -288
WIRE 2432 224 2208 224
WIRE 1088 240 1088 80
WIRE 1216 240 1088 240
WIRE 1376 240 1296 240
WIRE 1680 240 1664 240
WIRE 1696 240 1680 240
WIRE 1808 240 1808 160
WIRE 1808 240 1776 240
WIRE 1184 320 1152 320
WIRE 1232 320 1184 320
WIRE 1376 320 1296 320
WIRE 1696 320 1664 320
WIRE 2016 320 1952 320
WIRE 2224 320 2208 320
WIRE 2224 384 2224 320
WIRE 1808 432 1808 240
WIRE 1088 544 1088 240
WIRE 1088 544 1008 544
WIRE 1520 544 1520 352
WIRE 1520 544 1088 544
WIRE 1696 544 1696 320
WIRE 1696 544 1520 544
WIRE 1808 544 1808 512
WIRE 1808 544 1696 544
WIRE 1952 544 1952 320
WIRE 1952 544 1808 544
WIRE 2064 544 1952 544
WIRE 2224 544 2224 464
WIRE 2224 544 2144 544
WIRE 2304 544 2304 -208
WIRE 2304 544 2224 544
WIRE 2560 544 2560 -224
WIRE 2560 544 2304 544
WIRE 2752 544 2752 -32
WIRE 2752 544 2560 544
WIRE 2960 544 2960 32
WIRE 2960 544 2752 544
WIRE 3136 544 2960 544
FLAG 1728 80 gate
FLAG 1680 240 sense
FLAG 3136 -288 T+
FLAG 1008 544 0
FLAG 1520 -16 in
FLAG 3136 544 T-
FLAG 1184 320 Ith
FLAG 1904 160 Ith
FLAG 1680 160 oc
SYMBOL ind2 2192 -304 M0
SYMATTR InstName L2
SYMATTR Value 3.3µ
SYMATTR SpiceLine Rser=10.1m
SYMBOL ind2 2032 -192 M180
WINDOW 0 36 80 Left 2
WINDOW 3 36 40 Left 2
SYMATTR InstName L1
SYMATTR Value 3.3µ
SYMATTR SpiceLine Rser=10.1m
SYMBOL nmos 1760 0 R0
SYMATTR InstName M1
SYMATTR Value BSC024NE2LS
SYMBOL res 1792 416 R0
SYMATTR InstName R4
SYMATTR Value 4m
SYMBOL cap 1072 -256 R0
SYMATTR InstName C5
SYMATTR Value 100µ
SYMATTR SpiceLine Rser=5m
SYMBOL Optos/PC817A 2112 272 M0
SYMATTR InstName U2
SYMBOL voltage 1520 -32 R180
WINDOW 0 24 96 Left 2
WINDOW 3 24 16 Left 2
SYMATTR InstName V6
SYMATTR Value SINE(7 1 100)
SYMATTR SpiceLine Rser=10m
SYMBOL voltage 1008 -288 R0
SYMATTR InstName V5
SYMATTR Value 3.6
SYMATTR SpiceLine Rser=50m
SYMBOL res 1792 224 R90
WINDOW 0 0 56 VBottom 2
WINDOW 3 32 56 VTop 2
SYMATTR InstName R3
SYMATTR Value 12k
SYMBOL PowerProducts/LTC3805-5 1520 192 R0
SYMATTR InstName U1
SYMBOL res 1312 224 R90
WINDOW 0 0 56 VBottom 2
WINDOW 3 32 56 VTop 2
SYMATTR InstName R7
SYMATTR Value 36k
SYMBOL voltage 1312 80 R90
WINDOW 0 -32 56 VBottom 2
WINDOW 3 32 56 VTop 2
SYMATTR InstName V2
SYMATTR Value PULSE(0 7 .1m 0 0 1 1)
SYMBOL voltage 2160 544 R90
WINDOW 0 -32 56 VBottom 2
WINDOW 3 32 56 VTop 2
SYMATTR InstName V3
SYMATTR Value PULSE(0 20 1 1p 1p 5m 10m)
SYMBOL res 2240 480 R180
WINDOW 0 36 76 Left 2
WINDOW 3 36 40 Left 2
SYMATTR InstName R1
SYMATTR Value 470
SYMBOL voltage 1792 -160 R90
WINDOW 0 -32 56 VBottom 2
WINDOW 3 32 56 VTop 2
SYMATTR InstName V9
SYMATTR Value 5
SYMBOL schottky 2304 -272 R270
WINDOW 0 32 32 VTop 2
WINDOW 3 0 32 VBottom 2
SYMATTR InstName D1
SYMATTR Value B520C
SYMATTR Description Diode
SYMATTR Type diode
SYMBOL res 1936 -64 R0
SYMATTR InstName R2
SYMATTR Value 450
SYMBOL schottky 1296 304 R90
WINDOW 0 0 32 VBottom 2
WINDOW 3 32 32 VTop 2
SYMATTR InstName D2
SYMATTR Value CMDSH2-3
SYMATTR Description Diode
SYMATTR Type diode
SYMBOL res 1792 144 R90
WINDOW 0 0 56 VBottom 2
WINDOW 3 32 56 VTop 2
SYMATTR InstName R5
SYMATTR Value 5.6k
SYMBOL voltage 2752 -128 R0
SYMATTR InstName V1
SYMATTR Value 3
SYMBOL schottky 2768 -160 R180
WINDOW 0 24 64 Left 2
WINDOW 3 24 0 Left 2
SYMATTR InstName D3
SYMATTR Value B520C
SYMATTR Description Diode
SYMATTR Type diode
SYMBOL cap 2544 -288 R0
SYMATTR InstName C1
SYMATTR Value 100µ
SYMATTR SpiceLine Rser=5m
SYMBOL current 3072 -112 R0
SYMATTR InstName LOAD2
SYMATTR Value PULSE(.2 1 30m 20n 20n 4m 8m)
SYMBOL current 2960 -112 R0
SYMATTR InstName LOAD1
SYMATTR Value PULSE(.3 4 1m 2m 20m 0 0 1)
TEXT 1120 -392 Left 2 !.tran 40m
TEXT 2160 -336 Right 2 !K1 L1 L2 1
TEXT 2216 -376 Right 2 ;??
LINE Normal 2108 -456 2108 604 3
RECTANGLE Normal 1984 -400 2236 -172 2
