Version 4
SHEET 1 3352 912
WIRE 1088 -288 1008 -288
WIRE 2048 -288 1088 -288
WIRE 2304 -288 2176 -288
WIRE 2432 -288 2368 -288
WIRE 2624 -288 2432 -288
WIRE 2976 -288 2624 -288
WIRE 3136 -288 2976 -288
WIRE 1008 -272 1008 -288
WIRE 1088 -256 1088 -288
WIRE 2496 -208 2176 -208
WIRE 2624 -208 2624 -224
WIRE 3136 -208 3072 -208
WIRE 1008 -160 1008 -192
WIRE 1088 -160 1088 -192
WIRE 1088 -160 1008 -160
WIRE 1520 -160 1088 -160
WIRE 1696 -160 1520 -160
WIRE 1920 -160 1776 -160
WIRE 2624 -160 2624 -208
WIRE 2976 -144 2976 -288
WIRE 3072 -144 3072 -208
WIRE 1520 -128 1520 -160
WIRE 1904 -112 1808 -112
WIRE 2048 -112 2048 -208
WIRE 2048 -112 1904 -112
WIRE 1520 -16 1520 -48
WIRE 1808 0 1808 -112
WIRE 3072 0 3072 -64
WIRE 3136 0 3136 -208
WIRE 3136 0 3072 0
WIRE 1520 32 1520 -16
WIRE 1088 80 1088 -160
WIRE 1216 80 1088 80
WIRE 1376 80 1296 80
WIRE 1728 80 1664 80
WIRE 1760 80 1728 80
WIRE 1088 160 1088 80
WIRE 1216 160 1088 160
WIRE 1376 160 1280 160
WIRE 1680 160 1664 160
WIRE 1696 160 1680 160
WIRE 1808 160 1808 96
WIRE 1808 160 1776 160
WIRE 1920 224 1920 -160
WIRE 2016 224 1920 224
WIRE 2256 224 2208 224
WIRE 2432 224 2432 -288
WIRE 2432 224 2336 224
WIRE 1088 240 1088 160
WIRE 1216 240 1088 240
WIRE 1376 240 1296 240
WIRE 1680 240 1664 240
WIRE 1696 240 1680 240
WIRE 1808 240 1808 160
WIRE 1808 240 1776 240
WIRE 1088 320 1088 240
WIRE 1120 320 1088 320
WIRE 1216 320 1184 320
WIRE 1376 320 1296 320
WIRE 1696 320 1664 320
WIRE 1712 320 1696 320
WIRE 1744 320 1712 320
WIRE 1872 320 1824 320
WIRE 1920 320 1872 320
WIRE 2016 320 1920 320
WIRE 2224 320 2208 320
WIRE 1712 352 1712 320
WIRE 2224 384 2224 320
WIRE 1808 432 1808 240
WIRE 1920 432 1920 320
WIRE 1088 544 1088 320
WIRE 1088 544 1008 544
WIRE 1520 544 1520 352
WIRE 1520 544 1088 544
WIRE 1712 544 1712 416
WIRE 1712 544 1520 544
WIRE 1808 544 1808 512
WIRE 1808 544 1712 544
WIRE 1920 544 1920 512
WIRE 1920 544 1808 544
WIRE 2064 544 1920 544
WIRE 2224 544 2224 464
WIRE 2224 544 2144 544
WIRE 2496 544 2496 -208
WIRE 2496 544 2224 544
WIRE 2976 544 2976 -64
WIRE 2976 544 2496 544
WIRE 3072 544 3072 0
WIRE 3072 544 2976 544
WIRE 3136 544 3072 544
FLAG 1728 80 gate
FLAG 1680 240 sense
FLAG 1696 320 FBX
FLAG 3136 -288 T+
FLAG 1904 -112 N005
FLAG 1008 544 0
FLAG 1520 -16 in
FLAG 3136 544 T-
FLAG 1872 320 FB
FLAG 2624 -208 T-
FLAG 1680 160 oc
SYMBOL ind2 2192 -304 M0
SYMATTR InstName L2
SYMATTR Value .47µ
SYMATTR SpiceLine Rser=5.3m
SYMBOL ind2 2032 -192 M180
WINDOW 0 36 80 Left 2
WINDOW 3 36 40 Left 2
SYMATTR InstName L1
SYMATTR Value .47µ
SYMATTR SpiceLine Rser=5.3m
SYMBOL cap 1184 304 R90
WINDOW 0 0 32 VBottom 2
WINDOW 3 32 32 VTop 2
SYMATTR InstName C3
SYMATTR Value 47n
SYMBOL nmos 1760 0 R0
SYMATTR InstName M1
SYMATTR Value BSC024NE2LS
SYMBOL res 1792 416 R0
SYMATTR InstName R4
SYMATTR Value 3m
SYMBOL cap 2608 -288 R0
SYMATTR InstName C4
SYMATTR Value 94µ
SYMBOL cap 1072 -256 R0
SYMATTR InstName C5
SYMATTR Value 47µ
SYMBOL Optos/PC817A 2112 272 M0
SYMATTR InstName U2
SYMBOL res 2240 240 R270
WINDOW 0 32 56 VTop 2
WINDOW 3 0 56 VBottom 2
SYMATTR InstName R6
SYMATTR Value 900
SYMBOL res 1904 416 R0
SYMATTR InstName R11
SYMATTR Value 2k
SYMBOL voltage 1520 -32 R180
WINDOW 0 24 96 Left 2
WINDOW 3 24 16 Left 2
SYMATTR InstName V6
SYMATTR Value SINE(7 1 100)
SYMATTR SpiceLine Rser=10m
SYMBOL voltage 1008 -288 R0
SYMATTR InstName V5
SYMATTR Value 3.6
SYMATTR SpiceLine Rser=10m
SYMBOL res 1312 304 R90
WINDOW 0 0 56 VBottom 2
WINDOW 3 32 56 VTop 2
SYMATTR InstName R2
SYMATTR Value 2.2k
SYMBOL res 1792 224 R90
WINDOW 0 0 56 VBottom 2
WINDOW 3 32 56 VTop 2
SYMATTR InstName R3
SYMATTR Value 10k
SYMBOL PowerProducts/LTC3805-5 1520 192 R0
SYMATTR InstName U1
SYMBOL res 1312 224 R90
WINDOW 0 0 56 VBottom 2
WINDOW 3 32 56 VTop 2
SYMATTR InstName R7
SYMATTR Value 36k
SYMBOL voltage 1312 80 R90
WINDOW 0 -32 56 VBottom 2
WINDOW 3 32 56 VTop 2
SYMATTR InstName V2
SYMATTR Value PULSE(0 7 .1m 0 0 1 1)
SYMBOL voltage 2160 544 R90
WINDOW 0 -32 56 VBottom 2
WINDOW 3 32 56 VTop 2
SYMATTR InstName V3
SYMATTR Value PULSE(0 20 1 1p 1p 5m 10m)
SYMBOL res 2240 480 R180
WINDOW 0 36 76 Left 2
WINDOW 3 36 40 Left 2
SYMATTR InstName R1
SYMATTR Value 5.1k
SYMBOL res 1840 304 R90
WINDOW 0 0 56 VBottom 2
WINDOW 3 32 56 VTop 2
SYMATTR InstName R10
SYMATTR Value 330
SYMBOL cap 1696 352 R0
SYMATTR InstName C6
SYMATTR Value 47n
SYMBOL voltage 1792 -160 R90
WINDOW 0 -32 56 VBottom 2
WINDOW 3 32 56 VTop 2
SYMATTR InstName V9
SYMATTR Value 5
SYMBOL res 3056 -160 R0
SYMATTR InstName R12
SYMATTR Value 1.3
SYMBOL schottky 2304 -272 R270
WINDOW 0 32 32 VTop 2
WINDOW 3 0 32 VBottom 2
SYMATTR InstName D1
SYMATTR Value B520C
SYMATTR Description Diode
SYMATTR Type diode
SYMBOL cap 1280 144 R90
WINDOW 0 0 32 VBottom 2
WINDOW 3 32 32 VTop 2
SYMATTR InstName C2
SYMATTR Value 10n
SYMBOL res 1792 144 R90
WINDOW 0 0 56 VBottom 2
WINDOW 3 32 56 VTop 2
SYMATTR InstName R13
SYMATTR Value 7k
SYMBOL current 2976 -144 R0
SYMATTR InstName I1
SYMATTR Value 3
TEXT 1120 -392 Left 2 !.tran 20m
TEXT 2160 -336 Right 2 !K1 L1 L2 1
TEXT 2216 -376 Right 2 ;??
LINE Normal 2108 -456 2108 604 3
RECTANGLE Normal 1984 -400 2236 -172 2
