Version 4
SHEET 1 1540 680
WIRE 704 144 528 144
WIRE 928 144 704 144
WIRE 1536 144 928 144
WIRE 928 320 928 144
WIRE 1024 320 928 320
WIRE 528 608 528 224
WIRE 704 608 704 208
WIRE 704 608 528 608
WIRE 1024 608 704 608
SYMBOL PowerProducts/LT8302 1136 464 R0
SYMATTR InstName U1
SYMBOL voltage 528 128 R0
SYMATTR InstName V1
SYMATTR Value 3.6
SYMATTR SpiceLine Rser=20m
SYMBOL cap 688 144 R0
SYMATTR InstName C1
SYMATTR Value 10µ
