Version 4
SHEET 1 1496 868
WIRE -80 48 -192 48
WIRE 112 48 -80 48
WIRE 272 48 112 48
WIRE 496 48 272 48
WIRE 832 48 544 48
WIRE 944 48 832 48
WIRE -192 64 -192 48
WIRE 272 64 272 48
WIRE 496 64 496 48
WIRE 544 64 544 48
WIRE 832 64 832 48
WIRE 944 64 944 48
WIRE -80 80 -80 48
WIRE -192 160 -192 144
WIRE 272 160 272 128
WIRE 320 160 272 160
WIRE 480 160 400 160
WIRE 496 160 496 144
WIRE 496 160 480 160
WIRE 544 160 544 144
WIRE 560 160 544 160
WIRE 832 160 832 128
WIRE 944 160 944 144
WIRE 112 192 112 48
WIRE -192 256 -240 256
WIRE -80 256 -80 160
WIRE -80 256 -112 256
WIRE -48 256 -80 256
WIRE 352 256 272 256
WIRE 480 256 480 160
WIRE 480 256 432 256
WIRE 560 272 560 160
WIRE 640 272 560 272
WIRE 720 272 704 272
WIRE 816 272 800 272
WIRE 864 272 816 272
WIRE 1136 272 1120 272
WIRE 1216 272 1200 272
WIRE -144 336 -240 336
WIRE -48 336 -64 336
WIRE 288 336 272 336
WIRE 384 336 368 336
WIRE 480 336 480 256
WIRE 560 368 560 272
WIRE 688 368 560 368
WIRE 864 368 768 368
WIRE 560 384 560 368
WIRE -224 416 -240 416
WIRE -128 416 -144 416
WIRE -48 416 -64 416
WIRE 432 416 272 416
WIRE 864 464 608 464
WIRE 1152 464 1120 464
WIRE -128 496 -144 496
WIRE -48 496 -64 496
WIRE 480 496 480 432
WIRE 480 496 272 496
WIRE 480 512 480 496
WIRE 560 512 560 480
WIRE 48 576 48 560
WIRE 176 576 176 560
WIRE 480 608 480 592
WIRE 176 656 176 640
FLAG -144 496 0
FLAG -240 416 0
FLAG -240 336 0
FLAG -192 160 0
FLAG 176 656 0
FLAG 384 336 0
FLAG 832 160 0
FLAG 560 512 0
FLAG 944 160 0
FLAG -192 48 IN
FLAG 944 48 OUT
FLAG -240 256 0
FLAG 48 576 0
FLAG 480 608 0
FLAG 816 336 0
FLAG 1216 272 0
FLAG 1152 464 0
SYMBOL res -48 320 R90
WINDOW 0 0 56 VBottom 2
WINDOW 3 32 56 VTop 2
SYMATTR InstName R1
SYMATTR Value 30.9K
SYMBOL voltage -192 48 R0
SYMATTR InstName V1
SYMATTR Value 48
SYMBOL cap -64 400 R90
WINDOW 0 0 32 VBottom 2
WINDOW 3 32 32 VTop 2
SYMATTR InstName C1
SYMATTR Value 15n
SYMBOL cap 160 640 M180
WINDOW 0 24 64 Left 2
WINDOW 3 24 8 Left 2
SYMATTR InstName C2
SYMATTR Value 4.7µ
SYMBOL res 448 240 R90
WINDOW 0 0 56 VBottom 2
WINDOW 3 32 56 VTop 2
SYMATTR InstName R2
SYMATTR Value 100k
SYMBOL res 384 320 R90
WINDOW 0 0 56 VBottom 2
WINDOW 3 32 56 VTop 2
SYMATTR InstName R3
SYMATTR Value 6.04K
SYMBOL ind2 480 48 R0
WINDOW 0 0 37 Right 2
WINDOW 3 0 72 Right 2
SYMATTR InstName L1
SYMATTR Value 28.5µ
SYMATTR Type ind
SYMATTR SpiceLine Rser=39m Rpar=5K
SYMBOL ind2 560 160 R180
WINDOW 0 -2 72 Right 2
WINDOW 3 1 44 Right 2
SYMATTR InstName L2
SYMATTR Value 1µ
SYMATTR Type ind
SYMATTR SpiceLine Rser=3.5m Rpar=5K
SYMBOL cap 816 64 R0
SYMATTR InstName C3
SYMATTR Value 400µ
SYMBOL res -128 400 R90
WINDOW 0 0 56 VBottom 2
WINDOW 3 32 56 VTop 2
SYMATTR InstName R4
SYMATTR Value 12.1K
SYMBOL cap -128 480 M90
WINDOW 0 0 32 VBottom 2
WINDOW 3 32 32 VTop 2
SYMATTR InstName C4
SYMATTR Value .005µ
SYMBOL res -96 64 R0
SYMATTR InstName R5
SYMATTR Value 412K
SYMBOL res -96 240 R90
WINDOW 0 0 56 VBottom 2
WINDOW 3 32 56 VTop 2
SYMATTR InstName R6
SYMATTR Value 15.4K
SYMBOL LT3748 112 368 R0
SYMATTR InstName U1
SYMBOL nmos 432 336 R0
WINDOW 3 41 106 Right 2
WINDOW 0 41 -13 Right 2
SYMATTR Value BSC320N20NS3
SYMATTR InstName Q1
SYMBOL res 464 496 R0
SYMATTR InstName R7
SYMATTR Value 12m
SYMBOL LT8309 992 368 R0
SYMATTR InstName U2
SYMBOL nmos 608 384 M0
WINDOW 0 44 -35 Right 2
WINDOW 3 28 104 Right 2
SYMATTR InstName Q2
SYMATTR Value BSC028N06LS3
SYMBOL res 784 352 R90
WINDOW 0 0 56 VBottom 2
WINDOW 3 32 56 VTop 2
SYMATTR InstName R8
SYMATTR Value 2.3K
SYMBOL schottky 640 288 R270
WINDOW 0 32 32 VTop 2
WINDOW 3 -1 10 VBottom 2
SYMATTR InstName D1
SYMATTR Value PMEG6010AED
SYMATTR Description Diode
SYMATTR Type diode
SYMBOL res 816 256 R90
WINDOW 0 0 56 VBottom 2
WINDOW 3 32 56 VTop 2
SYMATTR InstName R9
SYMATTR Value 3
SYMBOL cap 800 272 R0
WINDOW 0 25 13 Left 2
WINDOW 3 24 50 Left 2
SYMATTR InstName C5
SYMATTR Value 1µ
SYMBOL cap 1136 288 R270
WINDOW 0 32 32 VTop 2
WINDOW 3 0 32 VBottom 2
SYMATTR InstName C6
SYMATTR Value 4.7µ
SYMBOL cap 256 64 R0
WINDOW 39 24 64 Left 2
WINDOW 3 38 38 Left 2
SYMATTR Value 100p
SYMATTR InstName C7
SYMBOL res 416 144 R90
WINDOW 0 0 56 VBottom 2
WINDOW 3 32 56 VTop 2
SYMATTR InstName R10
SYMATTR Value 100
SYMBOL res 928 48 R0
SYMATTR InstName Rload
SYMATTR Value .625
TEXT 512 48 Bottom 2 !K1 L1 L2 1
TEXT 784 568 Left 2 !.tran 4m startup
TEXT 472 -32 Bottom 2 ;LT8309 - Secondary-Side Synchronous Rectifier Driver\nLT3748 - 100V Isolated Flyback Controller\n40W, 5V Isolated Telecom Supply\nInput: 36V to 72V       Output: 5V @ 8A
TEXT -160 680 Left 2 ;Note:\n  If the simulation model is not found please update with the "Sync Release" command from the "Tools" menu.\n  It remains the customer's responsibility to verify proper and reliable operation in the actual application.\n  Component substitution and printed circuit board layout may significantly affect circuit performance or reliability.\n  Contact your local sales representative for assistance. This circuit is distributed to customers only for use with LTC parts.\n  Copyright © 2014 Linear Technology Inc. All rights reserved.
