Version 4
SHEET 1 884 680
WIRE 832 112 544 112
WIRE 544 144 544 112
WIRE 544 144 464 144
WIRE 544 160 544 144
WIRE 544 240 544 224
WIRE 544 240 464 240
WIRE 544 256 544 240
WIRE 832 256 832 112
WIRE 544 336 544 320
WIRE 544 336 464 336
WIRE 544 352 544 336
WIRE 544 432 544 416
WIRE 544 432 464 432
WIRE 544 464 544 432
WIRE 832 464 832 336
WIRE 832 464 544 464
WIRE 544 496 544 464
FLAG 544 496 0
SYMBOL cap 528 352 R0
SYMATTR InstName C1
SYMATTR Value 2
SYMATTR SpiceLine Rser=.1
SYMBOL cap 528 256 R0
SYMATTR InstName C2
SYMATTR Value 2
SYMATTR SpiceLine Rser=.1
SYMBOL cap 528 160 R0
SYMATTR InstName C3
SYMATTR Value 2
SYMATTR SpiceLine Rser=.1
SYMBOL cap 144 256 R0
SYMATTR InstName C4
SYMATTR Value 1.2m
SYMATTR SpiceLine Rser=.5
SYMBOL res 816 240 R0
SYMATTR InstName R1
SYMATTR Value 1
SYMBOL Misc/SCR 464 320 R90
SYMATTR InstName U1
SYMBOL Misc/SCR 464 224 R90
SYMATTR InstName U2
SYMBOL pmos 368 96 M90
SYMATTR InstName M1
SYMBOL nmos 368 480 R270
SYMATTR InstName M2
